Version 4
SHEET 1 1296 680
WIRE 128 -80 48 -80
WIRE 384 -80 208 -80
WIRE -112 16 -112 -32
WIRE 48 16 48 -80
WIRE 128 16 48 16
WIRE 240 16 192 16
WIRE 464 32 464 -16
WIRE 880 48 672 48
WIRE 768 128 768 112
WIRE 160 144 160 112
WIRE 672 144 672 48
WIRE 736 144 672 144
WIRE -160 160 -160 64
WIRE -112 160 -112 96
WIRE -112 160 -160 160
WIRE -64 160 -112 160
WIRE 48 160 48 16
WIRE 48 160 16 160
WIRE 128 160 48 160
WIRE 880 160 880 48
WIRE 880 160 800 160
WIRE 960 160 880 160
WIRE 240 176 240 16
WIRE 240 176 192 176
WIRE 256 176 240 176
WIRE 384 176 384 -80
WIRE 384 176 320 176
WIRE 464 176 464 112
WIRE 464 176 384 176
WIRE 736 176 464 176
WIRE 128 192 80 192
WIRE -112 208 -112 160
WIRE 464 208 464 176
WIRE 768 224 768 192
WIRE 160 272 160 208
WIRE -16 288 -16 256
WIRE 0 288 -16 288
WIRE 80 288 80 192
WIRE 160 288 160 272
WIRE 80 304 80 288
WIRE 464 320 464 288
WIRE -112 336 -112 288
WIRE 80 416 80 384
FLAG 160 112 Vcc
FLAG 160 272 Vee
FLAG -112 336 Vee
IOPIN -112 336 In
FLAG 464 320 Vee
IOPIN 464 320 In
FLAG -112 -32 Vcc
IOPIN -112 -32 In
FLAG 464 -16 Vcc
IOPIN 464 -16 In
FLAG -16 256 Vcc
IOPIN -16 256 In
FLAG 80 416 Vee
IOPIN 80 416 In
FLAG -160 64 Vin
IOPIN -160 64 In
FLAG 768 224 vee
IOPIN 768 224 In
FLAG 768 112 vcc
IOPIN 768 112 In
FLAG 960 160 Vout
IOPIN 960 160 Out
SYMBOL Opamps\\LT6232 160 176 R0
SYMATTR InstName U1
SYMBOL res -80 176 R270
WINDOW 0 32 56 VTop 2
WINDOW 3 0 56 VBottom 2
SYMATTR InstName R1
SYMATTR Value {Rk}
SYMBOL res 112 -64 R270
WINDOW 0 32 56 VTop 2
WINDOW 3 0 56 VBottom 2
SYMATTR InstName R2
SYMATTR Value {Rk*k}
SYMBOL res 448 16 R0
SYMATTR InstName R3
SYMATTR Value {ROP}
SYMBOL res 448 192 R0
SYMATTR InstName R4
SYMATTR Value {ROP}
SYMBOL res -128 0 R0
SYMATTR InstName R5
SYMATTR Value {ROP}
SYMBOL res -128 192 R0
SYMATTR InstName R6
SYMATTR Value {ROP}
SYMBOL res -16 304 R270
WINDOW 0 32 56 VTop 2
WINDOW 3 0 56 VBottom 2
SYMATTR InstName R7
SYMATTR Value {R4V5}
SYMBOL res 64 288 R0
SYMATTR InstName R8
SYMATTR Value {R4V5}
SYMBOL Opamps\\LT6232 768 160 R0
SYMATTR InstName U2
SYMBOL diode 128 32 R270
WINDOW 0 32 32 VTop 2
WINDOW 3 0 32 VBottom 2
SYMATTR InstName D1
SYMBOL diode 256 192 R270
WINDOW 0 32 32 VTop 2
WINDOW 3 0 32 VBottom 2
SYMATTR InstName D2
TEXT -120 520 Left 2 ;Verstärkung R2/R1
TEXT -120 544 Left 2 ;Vout Offset zu 4.5 Volt abhängig von Qualität der Brückenschaltung \nan Pos.Eingang des OpAmps1.\nAusgang nicht Belastbar -> Impedanzwandler OpAmp
TEXT -384 456 Left 2 !.param Cin 10u\n.param ROP 45k\n.param R4V5 1k\n.param k 1\n.param Rk 1k
