Version 4
SHEET 1 1604 872
WIRE 1280 64 1280 -80
WIRE 208 80 208 -16
WIRE 544 96 544 -16
WIRE 928 96 928 -48
WIRE 480 112 480 0
WIRE 736 144 640 144
WIRE 848 144 736 144
WIRE 1152 144 1040 144
WIRE 1584 144 1408 144
WIRE 96 176 0 176
WIRE 480 176 320 176
WIRE 928 304 928 192
WIRE 1280 320 1280 224
WIRE 208 352 208 272
WIRE 544 352 544 192
WIRE 1056 624 1056 592
WIRE -32 640 -32 592
WIRE 288 640 288 592
WIRE 416 640 416 592
WIRE 640 640 640 592
WIRE -32 768 -32 720
WIRE 288 768 288 720
WIRE 416 768 416 720
WIRE 640 768 640 720
WIRE 1056 768 1056 704
FLAG 288 768 0
FLAG 288 592 Vcc
FLAG 416 768 0
FLAG -32 768 0
FLAG -32 592 Vexp
FLAG 416 592 Vsin
FLAG 640 592 Vin
FLAG 640 768 0
FLAG 208 -16 Vcc
FLAG 208 352 0
FLAG 0 176 Vin
FLAG 544 352 0
FLAG 544 -16 Vcc
FLAG 1056 768 0
FLAG 1056 592 Vth
FLAG 736 144 VoutDif
FLAG 928 304 0
FLAG 928 -48 Vcc
FLAG 480 0 Vth
FLAG 1280 -80 Vcc
FLAG 1280 320 0
SYMBOL Hüllkurvendetektor_Ver1 208 176 R0
SYMATTR InstName X1
SYMBOL voltage 288 624 R0
WINDOW 123 0 0 Left 2
WINDOW 39 0 0 Left 2
SYMATTR InstName V1
SYMATTR Value 9
SYMBOL voltage 416 624 R0
WINDOW 123 0 0 Left 2
WINDOW 39 0 0 Left 2
SYMATTR InstName V2
SYMATTR Value SINE(0 2 1k)
SYMBOL voltage -32 624 R0
WINDOW 123 0 0 Left 2
WINDOW 39 0 0 Left 2
SYMATTR InstName V3
SYMATTR Value EXP(0 -1 1m 80m 1m 1m)
SYMBOL bv 640 624 R0
SYMATTR InstName B1
SYMATTR Value V=(V(Vexp)*V(Vsin))+4.5
SYMBOL OpAmpDifferential 560 144 R0
WINDOW 39 56 14 Bottom 2
SYMATTR SpiceLine k=1
SYMATTR InstName X2
SYMBOL voltage 1056 608 R0
WINDOW 123 0 0 Left 2
WINDOW 39 0 0 Left 2
SYMATTR InstName V4
SYMATTR Value {Vth}
SYMBOL InverterOp 928 144 R0
SYMATTR InstName X4
SYMBOL PraezEinwegGleichrichter 1280 144 R0
SYMATTR InstName X3
TEXT -64 856 Left 2 !.tran 100m
TEXT -48 432 Left 2 !.param Vth 1
