Version 4
SHEET 1 1028 680
WIRE 32 -416 32 -496
WIRE 32 -304 32 -336
WIRE 1024 -304 32 -304
WIRE -144 -176 -448 -176
WIRE 32 -176 32 -304
WIRE 32 -176 -144 -176
WIRE 176 -176 32 -176
WIRE 528 -176 176 -176
WIRE -560 -128 -864 -128
WIRE -240 -128 -560 -128
WIRE 32 -128 -240 -128
WIRE 448 -128 32 -128
WIRE 528 -96 528 -176
WIRE -448 -80 -448 -176
WIRE -144 -80 -144 -176
WIRE 176 -80 176 -176
WIRE -864 -64 -864 -128
WIRE -560 -64 -560 -128
WIRE -480 -64 -560 -64
WIRE -240 -64 -240 -128
WIRE -176 -64 -240 -64
WIRE 32 -64 32 -128
WIRE 144 -64 32 -64
WIRE -368 -48 -416 -48
WIRE -320 -48 -368 -48
WIRE -64 -48 -112 -48
WIRE -48 -48 -64 -48
WIRE 256 -48 208 -48
WIRE 272 -48 256 -48
WIRE 448 -48 448 -128
WIRE 496 -48 448 -48
WIRE -480 -32 -544 -32
WIRE -176 -32 -240 -32
WIRE 144 -32 -16 -32
WIRE 704 -16 640 -16
WIRE 752 -16 704 -16
WIRE 496 16 432 16
WIRE -448 32 -448 -16
WIRE -144 32 -144 -16
WIRE 176 32 176 -16
WIRE -864 80 -864 16
WIRE -544 96 -544 -32
WIRE -240 96 -240 -32
WIRE -240 96 -544 96
WIRE -16 96 -16 -32
WIRE -16 96 -240 96
WIRE 432 96 432 16
WIRE 432 96 -16 96
WIRE 528 96 528 64
WIRE -144 176 -144 112
WIRE -16 240 -16 96
WIRE 576 288 576 64
WIRE 1024 288 1024 -304
WIRE 1024 288 576 288
WIRE -16 352 -16 320
FLAG -448 32 0
FLAG 176 32 0
FLAG 528 96 0
FLAG 32 -496 0
FLAG -16 352 0
FLAG -864 80 0
FLAG -368 -48 out1
FLAG -64 -48 out2
FLAG 256 -48 out3
FLAG 704 -16 out4
FLAG -48 32 0
FLAG 272 32 0
FLAG 752 64 0
FLAG -320 32 0
FLAG -144 176 0
SYMBOL Opamps\\LT1678 176 -48 R0
SYMATTR InstName U1
SYMBOL Opamps\\LT1115 -144 -112 R0
SYMATTR InstName U2
SYMBOL Opamps\\LT6200 528 -16 R0
SYMATTR InstName U3
SYMBOL Opamps\\LT1677 -448 -112 R0
SYMATTR InstName U4
SYMBOL voltage 32 -320 R180
WINDOW 0 24 96 Left 2
WINDOW 3 24 16 Left 2
WINDOW 123 0 0 Left 2
WINDOW 39 0 0 Left 2
SYMATTR InstName V1
SYMATTR Value 9
SYMBOL voltage -16 224 R0
WINDOW 3 24 152 Left 2
WINDOW 123 24 124 Left 2
WINDOW 39 0 0 Left 2
SYMATTR InstName V2
SYMATTR Value 0
SYMATTR Value2 AC 0.5
SYMBOL res -336 -64 R0
SYMATTR InstName R1
SYMATTR Value 47k
SYMBOL res -64 -64 R0
SYMATTR InstName R2
SYMATTR Value 47k
SYMBOL res 256 -64 R0
SYMATTR InstName R3
SYMATTR Value 47k
SYMBOL res 736 -32 R0
SYMATTR InstName R4
SYMATTR Value 47k
SYMBOL voltage -864 -80 R0
WINDOW 123 24 44 Left 2
WINDOW 39 0 0 Left 2
SYMATTR InstName V3
SYMATTR Value ""
SYMATTR Value2 AC -0.5
SYMBOL voltage -144 16 R0
WINDOW 123 0 0 Left 2
WINDOW 39 0 0 Left 2
SYMATTR InstName V4
SYMATTR Value -9
TEXT -880 304 Left 2 !.ac dec 1000 100 1000G
