Version 4
SHEET 1 880 680
WIRE 240 -368 240 -432
WIRE 288 -176 192 -176
WIRE 304 -176 288 -176
WIRE 240 -96 240 -288
WIRE -112 -80 -368 -80
WIRE 16 -80 -112 -80
WIRE 112 -80 112 -176
WIRE 112 -80 96 -80
WIRE 208 -80 112 -80
WIRE 304 -64 304 -176
WIRE 304 -64 272 -64
WIRE 320 -64 304 -64
WIRE 432 -64 400 -64
WIRE 208 -48 160 -48
WIRE -368 16 -368 -80
WIRE -16 16 -96 16
WIRE 16 16 -16 16
WIRE 160 16 160 -48
WIRE 160 16 96 16
WIRE 240 16 240 -32
WIRE -368 128 -368 96
WIRE -96 128 -96 96
WIRE 160 128 160 96
FLAG 240 -432 0
FLAG 240 16 0
FLAG 432 -64 0
FLAG 160 128 0
FLAG -96 128 0
FLAG -16 16 Ue2
FLAG -112 -80 Ue1
FLAG 288 -176 Uout
FLAG -368 128 0
SYMBOL Opamps\\LT1677 240 -128 R0
SYMATTR InstName U1
SYMBOL voltage 240 -272 R180
WINDOW 0 24 96 Left 2
WINDOW 3 24 16 Left 2
WINDOW 123 0 0 Left 2
WINDOW 39 0 0 Left 2
SYMATTR InstName V1
SYMATTR Value 9
SYMBOL res 304 -48 R270
WINDOW 0 32 56 VTop 2
WINDOW 3 0 56 VBottom 2
SYMATTR InstName RL1
SYMATTR Value 47k
SYMBOL res 0 -64 R270
WINDOW 0 32 56 VTop 2
WINDOW 3 0 56 VBottom 2
SYMATTR InstName R1
SYMATTR Value {R13}
SYMBOL res 0 32 R270
WINDOW 0 32 56 VTop 2
WINDOW 3 0 56 VBottom 2
SYMATTR InstName R2
SYMATTR Value {R13}
SYMBOL res 144 0 R0
SYMATTR InstName R3
SYMATTR Value {R24}
SYMBOL res 208 -192 R90
WINDOW 0 0 56 VBottom 2
WINDOW 3 32 56 VTop 2
SYMATTR InstName R4
SYMATTR Value {R24}
SYMBOL voltage -96 0 R0
WINDOW 123 0 0 Left 2
WINDOW 39 0 0 Left 2
SYMATTR InstName V2
SYMATTR Value SINE(8 1m 0 0 0 0)
SYMBOL voltage -368 0 R0
WINDOW 123 24 124 Left 2
WINDOW 39 0 0 Left 2
SYMATTR InstName V3
SYMATTR Value SINE(8 1m 0)
TEXT -256 -232 Left 2 !.tran 0 10m 0 500n
TEXT -112 232 Left 2 !.step param R13 list 1k 10k 100k
TEXT 328 224 Left 2 !.param R24 k*R13
TEXT -104 200 Left 2 !;param R13 100k
TEXT 336 200 Left 2 !;step param k list 1 10 100
TEXT 344 168 Left 2 !.param k 10
