Version 4
SHEET 1 1672 1140
WIRE 176 -128 176 -192
WIRE 1232 -128 1232 -192
WIRE 224 64 128 64
WIRE 240 64 224 64
WIRE 1280 64 1184 64
WIRE 1296 64 1280 64
WIRE 176 144 176 -48
WIRE 1232 144 1232 -48
WIRE -176 160 -304 160
WIRE -48 160 -176 160
WIRE 48 160 48 64
WIRE 48 160 32 160
WIRE 144 160 48 160
WIRE 880 160 752 160
WIRE 1008 160 880 160
WIRE 1104 160 1104 64
WIRE 1104 160 1088 160
WIRE 1200 160 1104 160
WIRE 240 176 240 64
WIRE 240 176 208 176
WIRE 256 176 240 176
WIRE 368 176 336 176
WIRE 1296 176 1296 64
WIRE 1296 176 1264 176
WIRE 1312 176 1296 176
WIRE 1424 176 1392 176
WIRE 144 192 96 192
WIRE 1200 192 1152 192
WIRE -304 256 -304 160
WIRE -80 256 -160 256
WIRE -48 256 -80 256
WIRE 96 256 96 192
WIRE 96 256 32 256
WIRE 176 256 176 208
WIRE 752 256 752 160
WIRE 976 256 896 256
WIRE 1008 256 976 256
WIRE 1152 256 1152 192
WIRE 1152 256 1088 256
WIRE 1232 256 1232 208
WIRE -304 368 -304 336
WIRE -160 368 -160 336
WIRE 96 368 96 336
WIRE 752 368 752 336
WIRE 896 368 896 336
WIRE 1152 368 1152 336
WIRE 1296 608 1296 544
WIRE 192 624 192 560
WIRE 1424 736 1184 736
WIRE 1440 736 1424 736
WIRE 1296 768 1296 688
WIRE 240 816 144 816
WIRE 256 816 240 816
WIRE 1264 816 1184 816
WIRE 880 832 752 832
WIRE 1008 832 880 832
WIRE 1104 832 1104 736
WIRE 1104 832 1088 832
WIRE 1184 832 1184 816
WIRE 1184 832 1104 832
WIRE 1200 832 1184 832
WIRE 1440 848 1440 736
WIRE 1440 848 1408 848
WIRE 1456 848 1440 848
WIRE 1568 848 1536 848
WIRE 1232 864 1152 864
WIRE 1232 880 1232 864
WIRE 1264 880 1232 880
WIRE 192 896 192 704
WIRE -160 912 -288 912
WIRE -32 912 -160 912
WIRE 64 912 64 816
WIRE 64 912 48 912
WIRE 160 912 64 912
WIRE 256 928 256 816
WIRE 256 928 224 928
WIRE 272 928 256 928
WIRE 384 928 352 928
WIRE 752 928 752 832
WIRE 160 944 112 944
WIRE 976 960 896 960
WIRE 1008 960 976 960
WIRE 1152 960 1152 864
WIRE 1152 960 1088 960
WIRE 1296 960 1296 928
WIRE 1344 960 1344 928
WIRE 1344 960 1296 960
WIRE 1296 976 1296 960
WIRE -288 1008 -288 912
WIRE -64 1008 -144 1008
WIRE -32 1008 -64 1008
WIRE 112 1008 112 944
WIRE 112 1008 48 1008
WIRE 192 1008 192 960
WIRE 752 1040 752 1008
WIRE 896 1072 896 1040
WIRE 1152 1072 1152 1040
WIRE -288 1120 -288 1088
WIRE -144 1120 -144 1088
WIRE 112 1120 112 1088
FLAG 176 -192 0
FLAG 176 256 0
FLAG 368 176 0
FLAG 96 368 0
FLAG -160 368 0
FLAG -80 256 Ue2
FLAG -176 160 Ue1
FLAG 224 64 Uout
FLAG -304 368 0
FLAG 1232 -192 0
FLAG 1232 256 0
FLAG 1424 176 0
FLAG 1152 368 0
FLAG 896 368 0
FLAG 976 256 Ue2_1
FLAG 880 160 Ue1_1
FLAG 1280 64 Uout_1
FLAG 752 368 0
FLAG 1296 544 0
FLAG 1296 976 0
FLAG 1568 848 0
FLAG 1152 1072 0
FLAG 896 1072 0
FLAG 976 960 Ue2_2
FLAG 880 832 Ue1_2
FLAG 1424 736 Uout_2
FLAG 752 1040 0
FLAG 192 560 0
FLAG 192 1008 0
FLAG 384 928 0
FLAG 112 1120 0
FLAG -144 1120 0
FLAG -64 1008 Ue2_3
FLAG -160 912 Ue1_3
FLAG 240 816 Uout_3
FLAG -288 1120 0
SYMBOL Opamps\\LT1677 176 112 R0
SYMATTR InstName U1
SYMBOL voltage 176 -32 R180
WINDOW 0 24 96 Left 2
WINDOW 3 24 16 Left 2
WINDOW 123 0 0 Left 2
WINDOW 39 0 0 Left 2
SYMATTR InstName V1
SYMATTR Value 9
SYMBOL res 240 192 R270
WINDOW 0 32 56 VTop 2
WINDOW 3 0 56 VBottom 2
SYMATTR InstName RL
SYMATTR Value 47k
SYMBOL res -64 176 R270
WINDOW 0 32 56 VTop 2
WINDOW 3 0 56 VBottom 2
SYMATTR InstName R1
SYMATTR Value {R13}
SYMBOL res -64 272 R270
WINDOW 0 32 56 VTop 2
WINDOW 3 0 56 VBottom 2
SYMATTR InstName R3
SYMATTR Value {R13}
SYMBOL res 80 240 R0
SYMATTR InstName R4
SYMATTR Value {R24}
SYMBOL res 144 48 R90
WINDOW 0 0 56 VBottom 2
WINDOW 3 32 56 VTop 2
SYMATTR InstName R2
SYMATTR Value {R24}
SYMBOL voltage -160 240 R0
WINDOW 123 0 0 Left 2
WINDOW 39 0 0 Left 2
SYMATTR InstName V2
SYMATTR Value 4.5
SYMBOL voltage -304 240 R0
WINDOW 123 24 124 Left 2
WINDOW 39 0 0 Left 2
SYMATTR Value2 AC 1
SYMATTR InstName V3
SYMATTR Value 0
SYMBOL voltage 1232 -32 R180
WINDOW 0 24 96 Left 2
WINDOW 3 24 16 Left 2
WINDOW 123 0 0 Left 2
WINDOW 39 0 0 Left 2
SYMATTR InstName V4
SYMATTR Value 9
SYMBOL res 1296 192 R270
WINDOW 0 32 56 VTop 2
WINDOW 3 0 56 VBottom 2
SYMATTR InstName RL1
SYMATTR Value 47k
SYMBOL res 992 176 R270
WINDOW 0 32 56 VTop 2
WINDOW 3 0 56 VBottom 2
SYMATTR InstName R5
SYMATTR Value {R13}
SYMBOL res 992 272 R270
WINDOW 0 32 56 VTop 2
WINDOW 3 0 56 VBottom 2
SYMATTR InstName R6
SYMATTR Value {R13}
SYMBOL res 1136 240 R0
SYMATTR InstName R7
SYMATTR Value {R24}
SYMBOL res 1200 48 R90
WINDOW 0 0 56 VBottom 2
WINDOW 3 32 56 VTop 2
SYMATTR InstName R8
SYMATTR Value {R24}
SYMBOL voltage 896 240 R0
WINDOW 123 0 0 Left 2
WINDOW 39 0 0 Left 2
SYMATTR InstName V5
SYMATTR Value 4.5
SYMBOL voltage 752 240 R0
WINDOW 123 24 124 Left 2
WINDOW 39 0 0 Left 2
SYMATTR Value2 AC 1
SYMATTR InstName V6
SYMATTR Value 1
SYMBOL Opamps\\LT1115 1232 112 R0
SYMATTR InstName U2
SYMBOL voltage 1296 704 R180
WINDOW 0 24 96 Left 2
WINDOW 3 24 16 Left 2
WINDOW 123 0 0 Left 2
WINDOW 39 0 0 Left 2
SYMATTR InstName V7
SYMATTR Value 9
SYMBOL res 1440 864 R270
WINDOW 0 32 56 VTop 2
WINDOW 3 0 56 VBottom 2
SYMATTR InstName RL2
SYMATTR Value 47k
SYMBOL res 992 848 R270
WINDOW 0 32 56 VTop 2
WINDOW 3 0 56 VBottom 2
SYMATTR InstName R9
SYMATTR Value {R13}
SYMBOL res 992 976 R270
WINDOW 0 32 56 VTop 2
WINDOW 3 0 56 VBottom 2
SYMATTR InstName R10
SYMATTR Value {R13}
SYMBOL res 1136 944 R0
SYMATTR InstName R11
SYMATTR Value {R24}
SYMBOL res 1200 720 R90
WINDOW 0 0 56 VBottom 2
WINDOW 3 32 56 VTop 2
SYMATTR InstName R12
SYMATTR Value {R24}
SYMBOL voltage 896 944 R0
WINDOW 123 0 0 Left 2
WINDOW 39 0 0 Left 2
SYMATTR InstName V8
SYMATTR Value 4.5
SYMBOL voltage 752 912 R0
WINDOW 123 24 124 Left 2
WINDOW 39 0 0 Left 2
SYMATTR Value2 AC 1
SYMATTR InstName V9
SYMATTR Value 1
SYMBOL Opamps\\LT6200 1296 848 R0
SYMATTR InstName U3
SYMBOL voltage 192 720 R180
WINDOW 0 24 96 Left 2
WINDOW 3 24 16 Left 2
WINDOW 123 0 0 Left 2
WINDOW 39 0 0 Left 2
SYMATTR InstName V10
SYMATTR Value 9
SYMBOL res 256 944 R270
WINDOW 0 32 56 VTop 2
WINDOW 3 0 56 VBottom 2
SYMATTR InstName RL3
SYMATTR Value 47k
SYMBOL res -48 928 R270
WINDOW 0 32 56 VTop 2
WINDOW 3 0 56 VBottom 2
SYMATTR InstName R13
SYMATTR Value {R13}
SYMBOL res -48 1024 R270
WINDOW 0 32 56 VTop 2
WINDOW 3 0 56 VBottom 2
SYMATTR InstName R14
SYMATTR Value {R13}
SYMBOL res 96 992 R0
SYMATTR InstName R15
SYMATTR Value {R24}
SYMBOL res 160 800 R90
WINDOW 0 0 56 VBottom 2
WINDOW 3 32 56 VTop 2
SYMATTR InstName R16
SYMATTR Value {R24}
SYMBOL voltage -144 992 R0
WINDOW 123 0 0 Left 2
WINDOW 39 0 0 Left 2
SYMATTR InstName V11
SYMATTR Value 4.5
SYMBOL voltage -288 992 R0
WINDOW 123 24 124 Left 2
WINDOW 39 0 0 Left 2
SYMATTR Value2 AC 1
SYMATTR InstName V12
SYMATTR Value 1
SYMBOL Opamps\\LT1678 192 928 R0
SYMATTR InstName U4
TEXT -320 8 Left 2 !.ac dec 1000 1k 1000MEG
TEXT -176 472 Left 2 !.step param R13 list 1k 10k 100k 300k
TEXT -168 504 Left 2 !;step param R24 list 1k 10k 100k 300k
TEXT 264 464 Left 2 !.param R24 R13
